 &time_control
 run_days                            = 0,
 run_hours                           = 00,
 run_minutes                         = 0,
 run_seconds                         = 0,
 start_year                          = 2012, 2999, 2999,
 start_month                         = 06,   06,   06,
 start_day                           = 23,   11,   11,
 start_hour                          = 00,   12,   12,
 start_minute                        = 00,   00,   00,
 start_second                        = 00,   00,   00,
 end_year                            = 2012, 2999, 2999,
 end_month                           = 06,   06,   06,
 end_day                             = 29,   12,   12,
 end_hour                            = 00,   12,   12,
 end_minute                          = 00,   00,   00,
 end_second                          = 00,   00,   00,
 interval_seconds                    = 21600
 input_from_file                     = .true.,.true.,.true.,
 history_interval                    = 60,   60,   60,
 frames_per_outfile                  = 12, 1000, 1000,
 restart                             = .false.,
 restart_interval                    = 1440,
 auxinput5_interval_m                = 60, 60, 60
 io_form_history                     = 102
 io_form_restart                     = 102
 io_form_input                       = 2
 io_form_boundary                    = 2
 io_form_auxinput4                   = 0
 io_form_auxinput5                   = 2
 io_form_auxinput6                   = 2
 history_outname                     = "/scratch1/lcvalin/outWRF/seus_4km/norm_d<domain>_<date>"
 debug_level                         = 9999 
 /

 &domains
 time_step                           = 20,
 time_step_fract_num                 = 0,
 time_step_fract_den                 = 1,
 max_dom                             = 1,
 e_we                                = 401,    112,   94,
 e_sn                                = 301,    97,    91,
 e_vert                              = 42,    20,    20,
 dx                                  = 4000, 20000, 123,
 dy                                  = 4000, 20000, 123,
 p_top_requested                     = 5000,
 num_metgrid_levels                  = 38,
 num_metgrid_soil_levels             = 4,
 grid_id                             = 1,     2,     3,
 parent_id                           = 0,     1,     2,
 i_parent_start                      = 1,     30,    30,
 j_parent_start                      = 1,     20,    30,
 parent_grid_ratio                   = 1,     3,     3,
 parent_time_step_ratio              = 1,     3,     3,
 feedback                            = 1,
 smooth_option                       = 0
 eta_levels                          = 1.0000,  0.9945,  0.9854,  0.9743,  0.9615,  
                                       0.9474,  0.9322,  0.9158,  0.8985,  0.8803,  
                                       0.8613,  0.8415,  0.8210,  0.7997,  0.7778,  
                                       0.7553,  0.7322,  0.7084,  0.6841,  0.6593,  
                                       0.6339,  0.6081,  0.5817,  0.5548,  0.5275,  
                                       0.4997,  0.4715,  0.4428,  0.4137,  0.3842,  
                                       0.3542,  0.3239,  0.2932,  0.2621,  0.2306,  
                                       0.1987,  0.1665,  0.1339,  0.1009,  0.0676, 
                                       0.0340, 0
 /

 &physics
 mp_physics                          = 2,     2,     2,
 progn                               = 0,     0,     0,
 naer                                = 1e9
 ra_lw_physics                       = 1,     1,     1,
 ra_sw_physics                       = 2,     2,     2,
 radt                                = 30,    10,    10,
 sf_sfclay_physics                   = 1,     1,     1,
 sf_surface_physics                  = 2,     2,     2,
 bl_pbl_physics                      = 1,     1,     1,
 bldt                                = 1,     0,     0,
 cu_physics                          = 0,     5,     0,
 cudt                                = 0,     1,     1,
 isfflx                              = 1,
 ifsnow                              = 1,
 icloud                              = 1,
 surface_input_source                = 1,
 num_soil_layers                     = 4,
 sf_urban_physics                    = 0,     0,     0,
 maxiens                             = 1,
 maxens                              = 3,
 maxens2                             = 3,
 maxens3                             = 16,
 ensdim                              = 144,
 /

 &fdda
 grid_fdda 			     = 1,  
 gfdda_end_h  			     = 24, 
 gfdda_interval_m                    = 360, 
 fgdt 				     = 0, 
 if_no_pbl_nudging_uv 		     = 0, 
 if_no_pbl_nudging_t 		     = 1, 
 if_no_pbl_nudging_q 		     = 1, 
 if_zfac_uv 			     = 1, 
 k_zfac_uv 			     = 10,
 if_zfac_t 			     = 0, 
 k_zfac_t 			     = 10,
 if_zfac_q 			     = 0, 
 k_zfac_q  			     = 10, 
 guv 				     = 0.0003, 
 gt 				     = 0.0003, 
 gq 				     = 0.0003, 
 if_ramping 			     = 1,
 dtramp_min 			     = 60.0,
 io_form_gfdda 			     = 2,
 /

 &dynamics
 w_damping                           = 1,
 diff_opt                            = 1,
 km_opt                              = 4,
 diff_6th_opt                        = 0,      0,      0,
 diff_6th_factor                     = 0.12,   0.12,   0.12,
 base_temp                           = 290.
 damp_opt                            = 0,
 zdamp                               = 5000.,  5000.,  5000.,
 dampcoef                            = 0.2,    0.2,    0.2
 khdif                               = 0,      0,      0,
 kvdif                               = 0,      0,      0,
 non_hydrostatic                     = .true., .true., .true.,
 moist_adv_opt                       = 2,      1,      1,     
 scalar_adv_opt                      = 2,      1,      1,     
 chem_adv_opt                        = 2,      1,      1,     
 tke_adv_opt                         = 2,      1,      1,     
 /

 &bdy_control
 spec_bdy_width                      = 5,
 spec_zone                           = 1,
 relax_zone                          = 4,
 specified                           = .true., .false.,.false.,
 nested                              = .false., .true., .true.,
 /

 &grib2
 /

 &chem
 kemit                               = 7,
 chem_opt                            = 113,        2,
 bioemdt                             = 15,       30,
 photdt                              = 15,       30,
 chemdt                              = 2.5,       2.,
 io_style_emissions                  = 1,
 emiss_inpt_opt                      = 1,        1,
 emiss_opt                           = 3,        3,
 chem_in_opt                         = 0,        0,
 phot_opt                            = 2,        1,
 gas_drydep_opt                      = 1,        1,
 aer_drydep_opt                      = 1,        1,
 bio_emiss_opt                       = 3,        1,
 ne_area                             = 200,
 dust_opt                            = 0,
 dmsemis_opt                         = 0,
 seas_opt                            = 0,
 gas_bc_opt                          = 1,        1,
 gas_ic_opt                          = 1,        1,
 aer_bc_opt                          = 1,        1,
 aer_ic_opt                          = 1,        1,
 gaschem_onoff                       = 1,        1,
 aerchem_onoff                       = 1,        1,
 wetscav_onoff                       = 0,        0,
 cldchem_onoff                       = 0,        0,
 vertmix_onoff                       = 1,        1,
 biomass_burn_opt                    = 0,        0,
 plumerisefire_frq                   = 30,       30,
 aer_ra_feedback                     = 0,        0,
 have_bcs_chem                       = .false.,
 chem_conv_tr                        = 0 , 
/

 &namelist_quilt
 nio_tasks_per_group = 0,
 nio_groups = 1,
 /
